# ===========================================================================
#
#                            PUBLIC DOMAIN NOTICE
#               National Center for Biotechnology Information
#
#  This software/database is a "United States Government Work" under the
#  terms of the United States Copyright Act.  It was written as part of
#  the author's official duties as a United States Government employee and
#  thus cannot be copyrighted.  This software/database is freely available
#  to the public for use. The National Library of Medicine and the U.S.
#  Government have not placed any restriction on its use or reproduction.
#
#  Although all reasonable efforts have been taken to ensure the accuracy
#  and reliability of the software and data, the NLM and the U.S.
#  Government do not and cannot warrant the performance or results that
#  may be obtained by using this software or data. The NLM and the U.S.
#  Government disclaim all warranties, express or implied, including
#  warranties of performance, merchantability or fitness for any particular
#  purpose.
#
#  Please cite the author in any work or product based on this material.
#
# ===========================================================================

default: install

TOP ?= $(CURDIR)
MODPATH =

include $(TOP)/Makefile.config

#-------------------------------------------------------------------------------
# install
# 
ifeq (linux, $(OS))

LIBRARIES_TO_INSTALL = \
    ngs-sdk.$(VERSION_SHLX) \
    ngs-c++.$(VERSION_LIBX) \
    ngs-adapt-c++.$(VERSION_LIBX) \

LIB_TARGET = $(INST_LIBDIR)$(BITS)

LIBRARIES_WITH_PREFIX = \
	$(addprefix $(LIB_TARGET)/$(LPFX),$(LIBRARIES_TO_INSTALL))

copylibs: $(LIB_TARGET) $(LIBRARIES_WITH_PREFIX)

copyincludes:
	@ echo "Installing includes to $(INST_INCDIR)"
	@ mkdir -p $(INST_INCDIR)
	@ cp -r $(TOP)/ngs $(INST_INCDIR)/   

copyexamples:
	@ echo "Installing examples to $(INST_SHAREDIR)"
	@ mkdir -p $(INST_SHAREDIR)
	@ cp -r $(TOP)/examples $(INST_SHAREDIR)/

#TODO: install symlink to includes in /usr/include/ngs
#TODO: add libraries to $LD_LIBRARY_PATH by updating /etc/profile.d
install: copylibs copyincludes copyexamples

.PHONY: copylibs copyincludes copyexamples

else
install:

endif

.PHONY: install

