# ===========================================================================
#
#                            PUBLIC DOMAIN NOTICE
#               National Center for Biotechnology Information
#
#  This software/database is a "United States Government Work" under the
#  terms of the United States Copyright Act.  It was written as part of
#  the author's official duties as a United States Government employee and
#  thus cannot be copyrighted.  This software/database is freely available
#  to the public for use. The National Library of Medicine and the U.S.
#  Government have not placed any restriction on its use or reproduction.
#
#  Although all reasonable efforts have been taken to ensure the accuracy
#  and reliability of the software and data, the NLM and the U.S.
#  Government do not and cannot warrant the performance or results that
#  may be obtained by using this software or data. The NLM and the U.S.
#  Government disclaim all warranties, express or implied, including
#  warranties of performance, merchantability or fitness for any particular
#  purpose.
#
#  Please cite the author in any work or product based on this material.
#
# ===========================================================================


default: std

TOP ?= $(CURDIR)
MODPATH =

include $(TOP)/Makefile.config

INTLIBS = \

EXTLIBS = \

TARGETS = \

all std: $(TARGETS)

clean:

copyexamples:
	@ echo "Installing examples to $(INST_SHAREDIR)/examples-python"
	@ mkdir -p $(INST_SHAREDIR)/examples-python
	@ cp $(TOP)/examples/*.py $(INST_SHAREDIR)/examples-python


#-------------------------------------------------------------------------------
# install
# 
ifeq (linux, $(OS))

#fake root for debugging
#uncomment this line and change the test for root ( see under install: ) to succeed:
#ROOT = ~/root 

PROFILE_FILE = $(ROOT)/etc/profile.d/ngs-python

install: $(TARGETS) $(INST_PYTHONDIR) copyexamples
ifeq (0, $(shell id -u))
	@ echo "Installing ngs package"
	@ echo "Please add $(NGS_LIBDIR):$(VDB_LIBDIR) to your LD_LIBRARY_PATH, e.g.:"
	@ echo "      export LD_LIBRARY_PATH=$(NGS_LIBDIR):$(VDB_LIBDIR):\$$LD_LIBRARY_PATH"
	@ python setup.py install
   
else
	@ echo "Installing ngs package"
	@ echo "Please add $(NGS_LIBDIR):$(VDB_LIBDIR) to your LD_LIBRARY_PATH, e.g.:"
	@ echo "      export LD_LIBRARY_PATH=$(NGS_LIBDIR):$(VDB_LIBDIR):\$$LD_LIBRARY_PATH"
endif

else
install:

endif

.PHONY: default all std install $(TARGETS)
